data_cif

_audit_creation_method             'generated by GULP'

_symmetry_space_group_name_H-M     'P 1'
_symmetry_Int_Tables_number        1
_symmetry_cell_setting             triclinic

_cell_length_a                        8.8440
_cell_length_b                       12.5920
_cell_length_c                        8.5630
_cell_angle_alpha                   90.0000
_cell_angle_beta                    90.0000
_cell_angle_gamma                   90.0000

loop_
_atom_site_label
_atom_site_fract_x
_atom_site_fract_y
_atom_site_fract_z
_atom_site_occupancy
  Pb          0.50000      0.00000      0.00000  1.0000
  Pb          0.00000      0.00000      0.50000  1.0000
  Pb          0.00000      0.50000      0.50000  1.0000
  Pb          0.50000      0.50000      0.00000  1.0000
  I           0.47600      0.25000      0.93800  1.0000
  I           0.02400      0.75000      0.43800  1.0000
  I           0.97600      0.25000      0.56200  1.0000
  I           0.52400      0.75000      0.06200  1.0000
  I           0.17600      0.01700      0.17200  1.0000
  I           0.32400      0.98300      0.67200  1.0000
  I           0.67600      0.48300      0.32800  1.0000
  I           0.82400      0.51700      0.82800  1.0000
  I           0.82400      0.98300      0.82800  1.0000
  I           0.67600      0.01700      0.32800  1.0000
  I           0.32400      0.51700      0.67200  1.0000
  I           0.17600      0.48300      0.17200  1.0000
  N           0.95300      0.75000      0.02300  1.0000
  N           0.54700      0.25000      0.52300  1.0000
  N           0.45300      0.75000      0.47700  1.0000
  N           0.04700      0.25000      0.97700  1.0000
  C           0.90800      0.25000      0.07500  1.0000
  C           0.59200      0.75000      0.57500  1.0000
  C           0.40800      0.25000      0.42500  1.0000
  C           0.09200      0.75000      0.92500  1.0000
  H           0.94100      0.25000      0.19800  1.0000
  H           0.55900      0.75000      0.69800  1.0000
  H           0.44100      0.25000      0.30200  1.0000
  H           0.05900      0.75000      0.80200  1.0000
  H           0.84200      0.17800      0.04800  1.0000
  H           0.65800      0.82200      0.54800  1.0000
  H           0.34200      0.32200      0.45200  1.0000
  H           0.15800      0.67800      0.95200  1.0000
  H           0.15800      0.82200      0.95200  1.0000
  H           0.34200      0.17800      0.45200  1.0000
  H           0.65800      0.67800      0.54800  1.0000
  H           0.84200      0.32200      0.04800  1.0000
  H           0.11100      0.18300      0.00300  1.0000
  H           0.38900      0.81700      0.50300  1.0000
  H           0.61100      0.31700      0.49700  1.0000
  H           0.88900      0.68300      0.99700  1.0000
  H           0.88900      0.81700      0.99700  1.0000
  H           0.61100      0.18300      0.49700  1.0000
  H           0.38900      0.68300      0.50300  1.0000
  H           0.11100      0.31700      0.00300  1.0000
  H           0.97800      0.75000      0.14200  1.0000
  H           0.52200      0.25000      0.64200  1.0000
  H           0.47800      0.75000      0.35800  1.0000
  H           0.02200      0.25000      0.85800  1.0000
